[General]
network = NetXbar
sim-time-limit = 10ms
**.numPorts = 4	
**.xbar.bandwidth = 1000Mbps
NetXbar.bandwidth = 1000Mbps
**.cutThrough = false
**.pktSize = 512
**.sendInterval = 512ns

[Config Througput-Ports]
**.numPorts = ${ports=2,4,8,16,32}

[Config Througput-injectionrate]
**.numPorts = 16
**.pktSize = 512
**.sendInterval = ${send=512..1024 step 64}ns

[Config Throughput-bandwidth]
**.xbar.bandwidth = ${1000..2000 step 100}Mbps
NetXbar.bandwidth = 1000Mbps