[General]
network = NetXbar

[Config A-4-1]
sim-time-limit=100ms
NetXbar.num_nodes = 4
